Version 4
SHEET 1 880 680
WIRE -1984 -416 -2080 -416
WIRE -3888 -400 -4080 -400
WIRE -3888 -384 -3888 -400
WIRE -3664 -384 -3888 -384
WIRE -3168 -384 -3424 -384
WIRE -1984 -368 -1984 -416
WIRE -1984 -352 -1984 -368
WIRE -3168 -336 -3168 -384
WIRE -2720 -336 -3168 -336
WIRE -2080 -336 -2080 -416
WIRE -2080 -336 -2720 -336
WIRE -3664 -320 -4080 -320
WIRE -3328 -320 -3424 -320
WIRE -4080 -272 -4080 -320
WIRE -2176 -272 -2256 -272
WIRE -2592 -256 -2832 -256
WIRE -2480 -256 -2592 -256
WIRE -2256 -240 -2256 -272
WIRE -2176 -208 -2176 -272
WIRE -1984 -208 -1984 -288
WIRE -1984 -208 -2176 -208
WIRE -3328 -112 -3328 -320
WIRE -3328 -112 -3648 -112
WIRE -2480 -112 -2480 -256
WIRE -2592 -96 -2592 -256
WIRE -2720 48 -2720 -336
WIRE -2832 64 -2832 -256
WIRE -2752 64 -2832 64
WIRE -2592 80 -2592 -32
WIRE -2592 80 -2688 80
WIRE -2480 80 -2480 -32
WIRE -2480 80 -2592 80
WIRE -2176 80 -2480 80
WIRE -4048 96 -4144 96
WIRE -3648 96 -3648 -112
WIRE -3648 96 -3984 96
WIRE -3568 96 -3648 96
WIRE -3216 96 -3488 96
WIRE -3040 96 -3216 96
WIRE -2752 96 -3040 96
WIRE -2736 96 -2752 96
WIRE -1936 96 -2048 96
WIRE -1824 96 -1936 96
WIRE -1792 96 -1824 96
WIRE -2176 112 -2176 80
WIRE -2128 112 -2128 96
WIRE -2128 112 -2176 112
WIRE -4144 208 -4144 96
WIRE -3040 208 -3040 96
WIRE -2832 208 -2832 64
WIRE -1936 208 -1936 96
WIRE -3216 224 -3216 96
WIRE -1936 224 -1936 208
WIRE -2720 304 -2720 112
WIRE -2688 304 -2720 304
WIRE -4144 416 -4144 288
WIRE -3216 416 -3216 288
WIRE -3216 416 -4144 416
WIRE -3040 416 -3040 288
WIRE -3040 416 -3216 416
WIRE -2832 416 -2832 288
WIRE -2832 416 -3040 416
WIRE -2688 416 -2688 304
WIRE -2688 416 -2832 416
WIRE -1936 416 -1936 272
WIRE -1936 416 -2688 416
WIRE -1856 416 -1936 416
WIRE -1856 448 -1856 416
WIRE -2688 464 -2688 416
FLAG -2688 464 0
FLAG -2256 -240 0
FLAG -1856 448 0
FLAG -1824 96 ADC
FLAG -4080 -272 0
SYMBOL res -3056 192 R0
SYMATTR InstName R1
SYMATTR Value 100k
SYMBOL res -2848 192 R0
SYMATTR InstName R2
SYMATTR Value 1k
SYMBOL res -2496 -128 R0
SYMATTR InstName R3
SYMATTR Value 100k
SYMBOL res -2032 80 R90
WINDOW 0 0 56 VBottom 2
WINDOW 3 32 56 VTop 2
SYMATTR InstName R6
SYMATTR Value 1k
SYMBOL res -3472 80 R90
WINDOW 0 0 56 VBottom 2
WINDOW 3 32 56 VTop 2
SYMATTR InstName R5
SYMATTR Value 10k
SYMBOL cap -1952 208 R0
SYMATTR InstName C2
SYMATTR Value 100n
SYMBOL cap -2608 -96 R0
SYMATTR InstName C4
SYMATTR Value 1µ
SYMBOL cap -3232 224 R0
SYMATTR InstName C1
SYMATTR Value 100n
SYMBOL OpAmps\\LTC1050 -2720 16 R0
WINDOW 3 36 87 Left 2
SYMATTR InstName U1
SYMBOL voltage -1984 -384 R0
WINDOW 123 0 0 Left 0
WINDOW 39 0 0 Left 0
SYMATTR InstName V1
SYMATTR Value 5
SYMBOL voltage -4144 192 R0
WINDOW 123 0 0 Left 0
WINDOW 39 0 0 Left 0
SYMATTR InstName V2
SYMATTR Value SINE(0 325 50)
SYMBOL cap -3984 80 R90
WINDOW 0 0 32 VBottom 2
WINDOW 3 32 32 VTop 2
SYMATTR InstName C3
SYMATTR Value 1p
SYMBOL Draft1 -3520 -352 R0
SYMATTR InstName X1
SYMBOL voltage -4080 -416 R0
WINDOW 123 24 44 Left 2
WINDOW 39 0 0 Left 0
SYMATTR Value2 AC 1 0
SYMATTR InstName V3
SYMATTR Value PULSE(0 1 0.2 0.1 0.1 20)
TEXT -2928 -432 Left 2 !.param G0=10n R0=100k C0=200p
TEXT -4176 488 Left 2 !;tran 4
TEXT -3200 -16 Left 2 !.ac dec 100 1 100k
